Version 4
SHEET 1 880 680
WIRE 48 96 -80 96
WIRE 272 96 176 96
WIRE 480 96 272 96
WIRE 480 144 480 96
WIRE 272 160 272 96
WIRE -80 256 -80 96
WIRE 272 320 272 288
WIRE 480 320 480 272
WIRE 480 320 272 320
WIRE 272 352 272 320
WIRE 272 512 272 480
SYMBOL cktsym\\diode 112 96 R270
WINDOW 3 -28 0 VBottom 2
WINDOW 0 28 0 VTop 2
SYMATTR InstName D1
SYMBOL cktsym\\capacitor 272 224 R0
SYMATTR Value 1µ
SYMATTR InstName C1
SYMBOL cktsym\\vsource -80 320 R0
WINDOW 123 0 0 Left 0
WINDOW 39 0 0 Left 0
SYMATTR Value 12
SYMATTR InstName V1
SYMBOL cktsym\\gnd_alt -80 384 R0
SYMATTR InstName U2
SYMBOL cktsym\\vsource 272 416 R0
WINDOW 123 0 0 Left 0
WINDOW 39 0 0 Left 0
SYMATTR Value PULSE(0 50 0 1u 1u 10u 20u 1000)
SYMATTR InstName V2
SYMBOL cktsym\\gnd_alt 272 512 R0
SYMATTR InstName U1
SYMBOL cktsym\\isource 480 208 R0
WINDOW 123 0 0 Left 0
WINDOW 39 0 0 Left 0
SYMATTR Value 0.1
SYMATTR InstName I1
TEXT -112 512 Left 2 !.tran 0 500u 0
TEXT -112 480 Left 2 !.include engr2420.sub
